ABINIT
ABySS
ACTC
AFLOW
AMOS
AMPHORA2
ANSYS
ANTLR
AOCC
APR
APR-util
ASE
ATK
Abseil
AdapterRemoval
AlphaFold
AlphaPickle
Amber
AmberTools
Anaconda3
Arcade-Learning-Environment
Archive-Zip
Armadillo
Arrow
ArviZ
AutoDock-GPU
AutoDock-Vina
Autoconf
Automake
Autotools
BAli-Phy
BBMap
BCFtools
BEDTools
BLAST
BLAST+
BLIS
BWA
BamTools
Bazel
Beast
BeautifulSoup
Berkeley-UPC
Bio-DB-HTS
BioPerl
Biopython
Bison
Blender
Blosc2
BoTorch
Boost
Boost.Python
Bottleneck
Bowtie
Bowtie2
Brotli
Brunsli
CD-HIT
CDAT
CDO
CESM
CESM-deps
CFITSIO
CGAL
CLHEP
CMake
CNVnator
CP2K
CUDA
CUDA-Samples
CUDAcore
CUnit
Cartopy
Catch2
Chapel
Check
ChimeraX
Clang
Clang-AOMP
Clp
ClustalW2
CoinUtils
ColabFold
Compress-Raw-Zlib
CoordgenLibs
CppUnit
CuPy
Cython
DB
DBCSR
DBD-mysql
DB_File
DBus
DCMTK
DFT-D3
DIAMOND
Dalton
DendroPy
Desmond
Devito
Doxygen
Draco
DualSPHysics
ELPA
EMBOSS
ESM
ESMF
EasyBuild
EasyBuild-faster
EasyBuild-faster-SCRATCH
EasyBuild-faster-myeb
EasyBuild-faster-tmp
Eigen
EnergyPlus
FEMZIP-L
FFTW
FFTW.MPI
FFmpeg
FIRESTARTER
FLAC
FLASH
FLTK
FSL
FastQC
Fiji
Fiona
Firefox
Flask
FlexiBLAS
Foldseek
FreeBayes
FreeImage
FreeXL
FriBidi
GATK
GCATools
GCC
GCCcore
GConf
GDAL
GDB
GDRCopy
GEOS
GL2PS
GLFW
GLPK
GLib
GMP
GObject-Introspection
GPflow
GPy
GPyTorch
GRASS
GROMACS
GSL
GST-plugins-bad
GST-plugins-base
GStreamer
GTK+
GTK2
GTK3
GTK4
GTS
Gaussian
Gdk-Pixbuf
GetDist
Ghostscript
GitPython
GlobalArrays
Globus-CLI
GnuTLS
Go
GraalVM
Gradle
Graphene
GraphicsMagick
Graphviz
Guile
Gymnasium
HDBSCAN
HDF
HDF5
HH-suite
HISAT2
HMMER
HOSSedu
HPL
HTSeq
HTSlib
HarfBuzz
Highway
Horovod
Hypre
ICU
IGV
INQ
IPython
ISA-L
ISL
ITK
ImageJ
ImageMagick
Imath
InterProScan
JAGS
JDFTx
JUnit
Jansson
JasPer
Java
JsonCpp
Judy
Julia
KaHIP
Kalign
Keras
Knitro
LAME
LAMMPS
LERC
LLVM
LMDB
LUMPY
LZO
LaTeX
Leptonica
LibSoup
LibTIFF
tiff
Libint
LittleCMS
Lua
M4
MAFFT
MAGMA
MAGeCK
MAINMAST
MATLAB-Engine
MCL
MEGAHIT
METIS
MFEM
MOE
MOOSE
MPC
MPFR
MUMPS
MUMmer
MaSuRCA
Mako
Mamba
MariaDB
Mathematica
Matlab
Mauve
Maven
McCortex
Mesa
Meson
Miniconda3
Molden
Mothur
MuJoCo
MultiQC
NAMD
NASM
NCCL
NCCL-tests
NCO
NGS
NGSadmix
NLTK
NLopt
NSPR
NSS
NVBIO
NVHPC
NVSHMEM
NanoFilt
NextDenovo
NextPolish
Nextflow
Ninja
Nuitka
OBITools3
OGDF
ONNX
ONNX-Runtime
ORCA
OSU-Micro-Benchmarks
Octave
Open-Data-Cube-Core
OpenAI-Gym
OpenBLAS
OpenBabel
OpenCV
OpenCensus-python
OpenEXR
OpenFOAM
OpenFold
OpenJPEG
OpenMM
OpenMPI
OpenMX
OpenPGM
OpenSSL
OptiX
Optuna
Osi
PCAngsd
PCRE
PCRE2
PDAL
PETSc
PLINK
PLUMED
PLY
PMIx
POV-Ray
PROJ
Pango
ParMETIS
ParaView
ParallelFold
Perl
Perl-bundle-CPAN
Perl-bundle1-CPAN
Pillow
Pillow-SIMD
Pilon
Platypus
PnetCDF
PostgreSQL
PyCUDA
PyCairo
PyCharm
PyGObject
PyMC3
PyOpenCL
PyOpenGL
PyPy
PyQt5
PyStan
PyTorch
PyTorch-Geometric
PyTorch-Lightning
PyTorch3D
PyYAML
Pyomo
Pysam
Python
Python-bundle-PyPI
QCA
QGIS
QIIME2
QScintilla
Qhull
Qt5
Qt5Webkit
QtKeychain
QuantumESPRESSO
Qwt
R
R-bundle-Bioconductor
RAxML
RAxML-NG
RDFlib
RE2
RNAlysis
ROCR-Runtime
ROCT-Thunk-Interface
ROCm-CompilerSupport
ROOT
RSEM
R_tamu
Racon
RapidJSON
Ray-project
Redis
Ruby
Rust
SAMtools
SCNIC
SCOTCH
SCons
SDL2
SDL
SEPP
SIP
SLEPc
SMRT-Link
SPAdes
SQLite
SRA-Toolkit
STAR
STRUMPACK
SUNDIALS
SWIG
SZ
SZ3
Salmon
Sambamba
ScaFaCoS
ScaLAPACK
Schrodinger
SciPy-bundle
SciPy_tamu
Seaborn
Serf
Shapely
Spack
Spark
SpeedSeq
Stacks
Structure
Subversion
SuiteSparse
SuperLU_DIST
Szip
TCLAP
Taichi
Tcl
TensorFlow
TensorRT
Theano
Thermo-Calc
Tk
Tkinter
Transformers
Trim_Galore
Twisted
UCC
UCC-CUDA
UCSCtools
UCX
UCX-CUDA
UDUNITS
UnZip
VCFtools
VEP
VMD
VTK
VTune
VirtualGL
Voro++
VulkanSDK
WPS
WRF
Wannier90
Wayland
Waylandpp
WebKitGTK+
WebProxy
https
X11
XML-LibXML
XZ
xz
Xerces-C++
XtalOpt
Xvfb
YACS
YAXT
Yasm
Z3
ZEBULON
ZeroMQ
Zip
aesara
aiohttp
alsa-lib
angsd
ant
any2fasta
archspec
aria2
aria2-1.15.1
arpack-ng
arrow-R
astropy
at-spi2-atk
at-spi2-core
attrdict3
awscli
axl
bamkit
beagle-lib
binutils
bioawk
biom-format
bohrium
bokeh
build
bzip2
c-ares
cURL
cairo
canu
capstone
ccache
cffi
charliecloud
cisTEM
cobaya
code-server
colossalai
Colossal-AI
cppy
cryptography
cuDF
cuDNN
cuSPARSELt
cuSZ
cuTENSOR
cutadapt
cytoolz
dace
dask
dbus-glib
decona
dill
dlib
dm-reverb
dm-tree
double-conversion
ecBuild
ecCodes
edlib
einops
elfutils
enchant-2
exiv2
expat
expecttest
fastcore
fdasrsf
ffnvcodec
file
flatbuffers
FlatBuffers
flatbuffers-python
flex
flit
fontconfig
foss
fosscuda
freeglut
freetype
futhark
g2clib
gRPC
gawk
gc
gcccuda
gdbm
geocube
geopandas
gettext
gfbf
giflib
git
git-lfs
glew
glib-networking
gmpy2
gnuplot
gobff
gompi
gompic
googletest
gperf
gperftools
gpustat
graphite2
groff
gsd-vmd
gslib
gzip
h5py
hatchling
help2man
hifiasm
Hifiasm
hipSYCL
hipify-clang
hiredis
htop
hunspell
hwloc
hyphen
hypothesis
iccifort
iccifortcuda
iimkl
iimpi
iimpic
imageio
imkl
imkl-FFTW
impi
intel
intel-compilers
intel-python
intelcuda
intltool
iomkl
iompi
jax
jbigkit
jemalloc
json-c
kim-api
lDDT
lhsmdu
libFLAME
libGLU
libROM
libaec
libaio
libarchive
libcdms
libcerf
libcifpp
libdap
libdeflate
libdrm
libdrs
libepoxy
libev
libevent
libfabric
libffi
libgcrypt
libgd
libgeotiff
libgit2
libglvnd
libgpg-error
libgpuarray
libharu
libiconv
libidn
libidn2
libjpeg-turbo
libmatheval
libnsl
libogg
libopus
libpciaccess
libpng
libpsl
libreadline
librsvg
librttopo
libsigsegv
libsndfile
libsodium
libspatialindex
libspatialite
libssh
libtasn1
libtirpc
libtool
libunistring
libunwind
libvorbis
libvori
libwebp
libwpe
libxc
libxml2
libxslt
libxsmm
libyaml
libzip
likwid
lis
lmod
Lmod
loopy
lxml
lz4
maeparser
magma
make
makedepend
makeinfo
matplotlib
mbuffer
mcOutbryk
medaka
meson-python
minimap2
minizip
mkl-service
mold
molmod
mpi4py
mujoco-py
multichoose
ncbi-vdb
ncurses
netCDF
netCDF-C++4
netCDF-Fortran
netCDF-combined
netcdf4-python
nettle
networkx
newick_utils
nghttp2
nghttp3
ngtcp2
nlohmann_json
nodejs
nsync
numactl
numba
numexpr
nv-codec-headers
nvCOMP
nvidia-container-cli
nvtop
oneAPI
p11-kit
pandas
parabricks
parallel
parasail
patchelf
pftoolsV3
php
physics-tenpy
picard
pigz
pixman
pkg-config
pkgconf
pkgconfig
plotly.py
pmi
pocl
poetry
poppler
popt
probtorch
protobuf
protobuf-python
pscom
psycopg2
pugixml
pv
pyBigWig
pybind11
pydantic
pyfaidx
pyproj
pyro-api
pyro-ppl
pyspoa
pytest
pytest-flakefinder
pytest-rerunfailures
pytest-shard
pytest-xdist
xdist
python-isal
python-parasail
qcat
qchem
qrupdate
ragel
rasterio
rclone
re2
re2c
redis-py
rioxarray
rlwrap
rocm-cmake
rocm-smi
ruamel.yaml
samblaster
scikit-bio
scikit-build
scikit-fda
scikit-image
scikit-learn
scipy
segmentation-models
settarg
setuptools-rust
snakemake
snappy
sparsehash
spglib
spglib-python
spoa
spython
statsmodels
strace
svtyper
sympy
tbb
tcsh
tensorboard
tensorboardX
tensorflow-probability
time
tomli
torchinfo
torchvision
tqdm
trimAl
typing-extensions
ucsctest
unison
upcxx
utf8proc
util-linux
vasp
vawk
virtualenv
visit
wpebackend-fdo
wxPython
wxWidgets
x264
x265
xarray
xorg-macros
xprop
xproto
xxd
yaff
zarr
zfp
zlib
zstd
